@<TRIPOS>MOLECULE
4q9v_ligand_n.pdb
 18 17 0 0 0
SMALL
GASTEIGER

@<TRIPOS>ATOM
      1  C11       -6.1350  -13.8000  -65.6650 C.3     8  LI18        0.0000
      2  C12       -5.5260  -14.2890  -64.3430 C.3     8  LI18        0.0000
      3  C13       -6.0900  -13.5530  -63.1290 C.3     8  LI18        0.0000
      4  C14       -7.3700  -14.2180  -62.6380 C.3     8  LI18        0.0000
      5  C15       -5.0560  -13.4940  -61.9930 C.3     8  LI18        0.0000
      6  C16       -5.5180  -14.3210  -60.7850 C.3     8  LI18        0.0000
      7  C17       -4.3690  -14.3860  -59.7560 C.3     8  LI18        0.0000
      8  C18       -4.6240  -15.5350  -58.7720 C.3     8  LI18        0.0000
      9  C20       -3.5880  -15.5600  -57.6420 C.3     8  LI18        0.0000
     10  C21       -3.8890  -16.7710  -56.7320 C.3     8  LI18        0.0000
     11  C22       -4.5380  -16.2610  -55.4320 C.3     8  LI18        0.0000
     12  C23       -4.4600  -17.3750  -54.3580 C.3     8  LI18        0.0000
     13  C25       -4.4250  -16.7310  -52.9670 C.3     8  LI18        0.0000
     14  C26       -5.3880  -15.5180  -52.8600 C.3     8  LI18        0.0000
     15  C27       -6.7030  -15.9930  -52.2460 C.3     8  LI18        0.0000
     16  C28       -7.6960  -14.8600  -51.9250 C.3     8  LI18        0.0000
     17  C29       -8.4790  -15.3060  -50.6450 C.3     8  LI18        0.0000
     18  C30       -8.7990  -14.9120  -53.0100 C.3     8  LI18        0.0000
@<TRIPOS>BOND
     1     1     2    1
     2     2     3    1
     3     3     4    1
     4     3     5    1
     5     5     6    1
     6     6     7    1
     7     7     8    1
     8     8     9    1
     9     9    10    1
    10    10    11    1
    11    11    12    1
    12    12    13    1
    13    18    16    1
    14    13    14    1
    15    14    15    1
    16    15    16    1
    17    16    17    1
